test/data/CUYO.raw
@!IC, SBASE,REV,XFRRAT,NXFRAT,BASFRQ
0,   100.00, 34,     1,     1, 50.00     / PSS(R)E-34.9    SUN, NOV 02 2025  10:23
PICO HÁBIL DIURNO DEL VERANO 25/26 DEMANDA SADI 30960 MW

GENERAL, THRSHZ=0.0001, PQBRAK=0.7, BLOWUP=5.0
GAUSS, ITMX=100, ACCP=1.6, ACCQ=1.6, ACCM=1.0, TOL=0.0001
NEWTON, ITMXN=30, ACCN=1.0, TOLN=0.1, VCTOLQ=0.1, VCTOLV=0.00001, DVLIM=0.99, NDVFCT=0.99
ADJUST, ADJTHR=0.005, ACCTAP=1.0, TAPLIM=0.05, SWVBND=100.0, MXTPSS=99, MXSWIM=10
TYSL, ITMXTY=20, ACCTY=1.0, TOLTY=0.00001
SOLVER, FNSL, ACTAPS=1, AREAIN=0, PHSHFT=0, DCTAPS=1, SWSHNT=1, FLATST=0, VARLIM=0, NONDIV=0
RATING, 1, "RATE1 ", "RATING SET 1                    "
RATING, 2, "RATE2 ", "RATING SET 2                    "
RATING, 3, "RATE3 ", "RATING SET 3                    "
RATING, 4, "RATE4 ", "RATING SET 4                    "
RATING, 5, "RATE5 ", "RATING SET 5                    "
RATING, 6, "RATE6 ", "RATING SET 6                    "
RATING, 7, "RATE7 ", "RATING SET 7                    "
RATING, 8, "RATE8 ", "RATING SET 8                    "
RATING, 9, "RATE9 ", "RATING SET 9                    "
RATING,10, "RATE10", "RATING SET 10                   "
RATING,11, "RATE11", "RATING SET 11                   "
RATING,12, "RATE12", "RATING SET 12                   "
0 / END OF SYSTEM-WIDE DATA, BEGIN BUS DATA
@!   I,'NAME        ', BASKV, IDE,AREA,ZONE,OWNER, VM,        VA,    NVHI,   NVLO,   EVHI,   EVLO
  6010,'LUJAN.SL    ', 500.0000,1,  12,  34,  10,1.02932,  -8.0097,1.10000,0.90000,1.10000,0.90000
  7000,'GRAN MZA    ', 500.0000,1,  14,  35,  10,1.01568,  -2.6457,1.10000,0.90000,1.10000,0.90000
  7002,'RDIAMANT    ', 500.0000,1,  14,  35,  10,1.01540,   0.0000,1.10000,0.90000,1.10000,0.90000
  7003,'RDIAM.AC    ', 500.0000,3,  14,  35,  10,1.01540,   0.0000,1.10000,0.90000,1.10000,0.90000
  7005,'RDIAM.GM    ', 500.0000,1,  14,  35,  10,1.01540,   0.0000,1.10000,0.90000,1.10000,0.90000
  7010,'NVA.SJUAN   ', 500.0000,1,  14,  63,  10,0.99248,  -2.3084,1.10000,0.90000,1.10000,0.90000
  7100,'A.TORO      ', 220.0000,1,  14,  35,  10,1.01461,   6.2400,1.10000,0.90000,1.10000,0.90000
  7101,'VER.CAP.S   ', 220.0000,1,  14,  35,  10,1.02010,   0.1876,1.10000,0.90000,1.10000,0.90000
  7102,'CRUZPIED    ', 220.0000,1,  14,  35,  10,1.01966,  -0.3114,1.10000,0.90000,1.10000,0.90000
  7103,'ELQUEMADO   ', 220.0000,1,  14,  35,  10,1.00818,   2.9739,1.10000,0.90000,1.10000,0.90000
  7104,'GRAN MZA    ', 220.0000,1,  14,  35,  10,1.01807,  -0.5061,1.10000,0.90000,1.10000,0.90000
  7106,'REYUNOS     ', 220.0000,1,  14,  35,  10,1.01528,   4.7301,1.10000,0.90000,1.10000,0.90000
  7108,'NIHUIL      ', 220.0000,1,  14,  35,  10,1.00614,   5.9414,1.10000,0.90000,1.10000,0.90000
  7110,'SAN JUAN    ', 220.0000,1,  14,  63,  10,0.97910,  -0.2262,1.10000,0.90000,1.10000,0.90000
  7114,'RIODIAMA    ', 220.0000,1,  14,  35,   1,1.01213,   4.4763,1.10000,0.90000,1.10000,0.90000
  7200,'ANCHORIZ    ', 132.0000,1,  14,  35,   1,0.98612,  -2.0015,1.10000,0.90000,1.10000,0.90000
  7201,'V.KRAUSE    ', 132.0000,1,  14,  63,   1,0.98749,  -2.4597,1.10000,0.90000,1.10000,0.90000
  7202,'C.HONDA     ', 132.0000,1,  14,  63,   1,0.95835,  -4.4678,1.10000,0.90000,1.10000,0.90000
  7203,'NVA.SJUAN   ', 132.0000,1,  14,  63,  10,0.99663,  -1.7312,1.10000,0.90000,1.10000,0.90000
  7204,'CAPIZ       ', 132.0000,1,  14,  35,   1,0.97328,  -2.7130,1.10000,0.90000,1.10000,0.90000
  7205,'PISR        ', 132.0000,1,  14,  35,  10,0.97445,   1.9566,1.10000,0.90000,1.10000,0.90000
  7206,'CAUCETE     ', 132.0000,1,  14,  63,   1,0.97452,  -3.2513,1.10000,0.90000,1.10000,0.90000
  7207,'CERVANTES   ', 132.0000,1,  14,  63,   1,0.98662,  -2.5911,1.10000,0.90000,1.10000,0.90000
  7208,'CRUZPIED    ', 132.0000,1,  14,  35,  10,1.00090,  -2.0215,1.10000,0.90000,1.10000,0.90000
  7209,'PIQ V-SR    ', 132.0000,1,  14,  35,  10,0.97250,   1.4853,1.10000,0.90000,1.10000,0.90000
  7210,'EL TIGRE    ', 132.0000,1,  14,  35,  10,0.97773,   1.9048,1.10000,0.90000,1.10000,0.90000
  7211,'N.SJUAN SUR ', 132.0000,1,  14,  63,   1,0.99114,  -2.6138,1.10000,0.90000,1.10000,0.90000
  7212,'ULLUM       ', 132.0000,1,  14,  63,   1,1.01453,  -0.9083,1.10000,0.90000,1.10000,0.90000
  7213,'LOS MOLLES  ', 132.0000,1,  14,  35,  10,1.00494,  15.8258,1.10000,0.90000,1.10000,0.90000
  7214,'ALVEAR.M    ', 132.0000,1,  14,  35,  10,0.96424,   1.8674,1.10000,0.90000,1.10000,0.90000
  7216,'GRAN MZA    ', 132.0000,1,  14,  35,  10,1.01332,  -3.2104,1.10000,0.90000,1.10000,0.90000
  7218,'GUAYMALL    ', 132.0000,1,  14,  35,   1,0.97745,  -4.0200,1.10000,0.90000,1.10000,0.90000
  7219,'BOUL.MZA    ', 132.0000,1,  14,  35,   1,0.98965,  -3.3832,1.10000,0.90000,1.10000,0.90000
  7220,'LAS HERA    ', 132.0000,1,  14,  35,   1,0.98826,  -3.5267,1.10000,0.90000,1.10000,0.90000
  7221,'V. NUEVA    ', 132.0000,1,  14,  35,   1,0.99139,  -3.1910,1.10000,0.90000,1.10000,0.90000
  7222,'LC35        ', 132.0000,1,  14,  35,   1,0.96983,  -4.1874,1.10000,0.90000,1.10000,0.90000
  7223,'V.HIPODR    ', 132.0000,1,  14,  35,   1,0.99283,  -3.0375,1.10000,0.90000,1.10000,0.90000
  7224,'LUJ.CUYO    ', 132.0000,1,  14,  35,   1,1.01481,  -0.9969,1.10000,0.90000,1.10000,0.90000
  7226,'MCAS.CUY    ', 132.0000,1,  14,  35,  10,1.00777,  -3.5948,1.10000,0.90000,1.10000,0.90000
  7228,'MALARGUE    ', 132.0000,1,  14,  35,   1,1.00333,  15.7163,1.10000,0.90000,1.10000,0.90000
  7229,'LAS HERA    ', 132.0000,1,  14,  35,   1,0.97712,  -4.0553,1.10000,0.90000,1.10000,0.90000
  7230,'NIHUIL 1    ', 132.0000,1,  14,  35,  10,0.99604,   6.2975,1.10000,0.90000,1.10000,0.90000
  7231,'ELECALE     ', 132.0000,1,  14,  35,   1,0.99604,   6.2975,1.10000,0.90000,1.10000,0.90000
  7232,'NIHUIL 2    ', 132.0000,1,  14,  35,  10,0.99845,   5.6134,1.10000,0.90000,1.10000,0.90000
  7233,'P.NEGRA     ', 132.0000,1,  14,  63,   1,1.02575,   2.5496,1.10000,0.90000,1.10000,0.90000
  7234,'NIHUIL 3    ', 132.0000,1,  14,  35,  10,0.99522,   5.0207,1.10000,0.90000,1.10000,0.90000
  7235,'NIHUIL 4    ', 132.0000,1,  14,  35,  10,0.99191,   4.5824,1.10000,0.90000,1.10000,0.90000
  7236,'P.I.PE_1    ', 132.0000,1,  14,  35,   2,1.01260,  -1.1868,1.10000,0.90000,1.10000,0.90000
  7237,'CARACOL     ', 132.0000,1,  14,  63,  10,1.03328,   3.1066,1.10000,0.90000,1.10000,0.90000
  7238,'VARGAS      ', 132.0000,1,  14,  35,   1,0.97626,   1.8043,1.10000,0.90000,1.10000,0.90000
  7239,'RIELES      ', 132.0000,1,  14,  63,   1,0.99507,  -1.3622,1.10000,0.90000,1.10000,0.90000
  7240,'Q.ULLUM     ', 132.0000,1,  14,  63,  10,0.99510,  -1.3633,1.10000,0.90000,1.10000,0.90000
  7241,'CAVIC       ', 132.0000,1,  14,  63,  10,0.98377,  -2.0385,1.10000,0.90000,1.10000,0.90000
  7242,'ROD.CRUZ    ', 132.0000,1,  14,  35,   1,0.98871,  -3.4519,1.10000,0.90000,1.10000,0.90000
  7243,'JACHAL      ', 132.0000,1,  14,  63,   1,0.99697,  14.0367,1.10000,0.90000,1.10000,0.90000
  7244,'SANJUAN1    ', 132.0000,1,  14,  63,   1,0.99653,  -1.9709,1.10000,0.90000,1.10000,0.90000
  7245,'CACHEUTA    ', 132.0000,1,  14,  35,  10,1.02176,   0.7208,1.10000,0.90000,1.10000,0.90000
  7247,'PUEYRRED.SJ ', 132.0000,1,  14,  63,   1,0.98328,  -2.1225,1.10000,0.90000,1.10000,0.90000
  7248,'SMAR.EST    ', 132.0000,1,  14,  35,   1,1.00208,  -4.0910,1.10000,0.90000,1.10000,0.90000
  7249,'MIGUEZ      ', 132.0000,1,  14,  35,  10,1.00731,  -3.6864,1.10000,0.90000,1.10000,0.90000
  7250,'SMAR.MZA    ', 132.0000,1,  14,  35,   1,0.97817,  -3.9381,1.10000,0.90000,1.10000,0.90000
  7251,'RODEO       ', 132.0000,1,  14,  63,   1,1.02301,  23.5945,1.10000,0.90000,1.10000,0.90000
  7252,'S.RAFAEL    ', 132.0000,1,  14,  35,   1,0.97150,   1.3647,1.10000,0.90000,1.10000,0.90000
  7253,'CALINGASTA  ', 132.0000,1,  14,  63,   1,1.02288,  23.3776,1.10000,0.90000,1.10000,0.90000
  7254,'SILARSA     ', 132.0000,1,  14,  35,   1,1.01455,  -1.0182,1.10000,0.90000,1.10000,0.90000
  7255,'LA BEBIDA   ', 132.0000,1,  14,  63,  10,0.99639,  -1.7375,1.10000,0.90000,1.10000,0.90000
  7256,'TUNUYAN     ', 132.0000,1,  14,  35,  10,0.96464,  -6.0905,1.10000,0.90000,1.10000,0.90000
  7257,'BARRIALESII ', 132.0000,1,  14,  35,   1,1.01247,  -3.2692,1.10000,0.90000,1.10000,0.90000
  7258,'TRINIDAD    ', 132.0000,1,  14,  63,   1,0.99575,  -1.7751,1.10000,0.90000,1.10000,0.90000
  7259,'BAUCHACETA.A', 132.0000,1,  14,  63,  10,1.02323,  23.6155,1.10000,0.90000,1.10000,0.90000
  7260,'TUPUNGAT    ', 132.0000,1,  14,  35,   1,0.97296,  -6.1130,1.10000,0.90000,1.10000,0.90000
  7261,'PIQB.NIH.SR ', 132.0000,1,  14,  35,  10,0.98034,   2.8173,1.10000,0.90000,1.10000,0.90000
  7262,'PI.VNUE2    ', 132.0000,1,  14,  35,   1,0.99233,  -3.0721,1.10000,0.90000,1.10000,0.90000
  7263,'PI.VNUE1    ', 132.0000,1,  14,  35,   1,0.99029,  -3.3076,1.10000,0.90000,1.10000,0.90000
  7264,'SOSNEADO    ', 132.0000,1,  14,  35,   1,0.99958,  10.7798,1.10000,0.90000,1.10000,0.90000
  7265,'PU.ROJAS    ', 132.0000,1,  14,  35,   1,1.00306,  14.2879,1.10000,0.90000,1.10000,0.90000
  7266,'PI.ULLUM2   ', 132.0000,1,  14,  63,  10,1.01557,   2.4324,1.10000,0.90000,1.10000,0.90000
  7267,'COSTANERA   ', 132.0000,1,  14,  63,  10,0.99049,  -1.5720,1.10000,0.90000,1.10000,0.90000
  7268,'SOL.ULLUM   ', 132.0000,1,  14,  63,  10,1.01174,   2.3787,1.10000,0.90000,1.10000,0.90000
  7269,'PI.ULLUM1   ', 132.0000,1,  14,  63,  10,1.00662,   1.1499,1.10000,0.90000,1.10000,0.90000
  7270,'HUACO       ', 132.0000,1,  14,  63,   1,0.99778,  13.0843,1.10000,0.90000,1.10000,0.90000
  7271,'GUALCAMAYO  ', 132.0000,1,  14,  63,   1,0.99268,  12.5296,1.10000,0.90000,1.10000,0.90000
  7272,'ISCHIGUALAST', 132.0000,1,  14,  63,   1,0.99559,  12.5416,1.10000,0.90000,1.10000,0.90000
  7273,'C.GLORIA    ', 132.0000,1,  14,  35,   1,0.99068,  -3.2588,1.10000,0.90000,1.10000,0.90000
  7274,'GUANIZUIL_A ', 132.0000,1,  14,  63,  10,1.03179,  24.8013,1.10000,0.90000,1.10000,0.90000
  7275,'PI-PIP_1    ', 132.0000,1,  14,  35,  10,1.01260,  -1.1868,1.10000,0.90000,1.10000,0.90000
  7276,'PIQA.NIH.SR ', 132.0000,1,  14,  35,  10,0.97172,   1.3960,1.10000,0.90000,1.10000,0.90000
  7277,'GUANIZUIL_B ', 132.0000,1,  14,  63,  10,1.03076,  25.1234,1.10000,0.90000,1.10000,0.90000
  7278,'ZONDA       ', 132.0000,1,  14,  63,  10,1.03426,  25.8541,1.10000,0.90000,1.10000,0.90000
  7279,'PI-PIP_2    ', 132.0000,1,  14,  35,  10,1.01260,  -1.1868,1.10000,0.90000,1.10000,0.90000
  7280,'P.I.PE_2    ', 132.0000,1,  14,  35,   1,1.01260,  -1.1868,1.10000,0.90000,1.10000,0.90000
  7281,'BAUCHACETA.B', 132.0000,1,  14,  63,  10,1.02323,  23.6155,1.10000,0.90000,1.10000,0.90000
  7282,'ZONDA2      ', 132.0000,1,  14,  63,  10,1.03426,  25.8541,1.10000,0.90000,1.10000,0.90000
  7283,'PIP2-SIL    ', 132.0000,1,  14,  35,  10,1.01455,  -1.0182,1.10000,0.90000,1.10000,0.90000
  7285,'TOCOTA      ', 132.0000,1,  14,  63,  10,1.04393,  28.0257,1.10000,0.90000,1.10000,0.90000
  7500,'CRUZPIED    ',  66.0000,1,  14,  35,   1,0.97524,  -5.4897,1.10000,0.90000,1.10000,0.90000
  7502,'SAN JUAN    ',  33.0000,1,  14,  63,   1,0.96646,  -6.8097,1.10000,0.90000,1.10000,0.90000
  7503,'SARMISJU    ',  33.0000,1,  14,  63,   1,0.93946,  -7.2100,1.10000,0.90000,1.10000,0.90000
  7504,'CAVIC       ',  33.0000,1,  14,  63,   1,0.94877,  -6.4896,1.10000,0.90000,1.10000,0.90000
  7505,'VARG13_01   ',  13.2000,1,  14,  35,  10,0.98126,   1.9957,1.10000,0.90000,1.10000,0.90000
  7508,'CRUZP13_01  ',  13.2000,1,  14,  35,   1,0.98195,  -5.5796,1.10000,0.90000,1.10000,0.90000
  7509,'LBEB13_01   ',  13.2000,1,  14,  63,   1,0.93806,  -7.9422,1.10000,0.90000,1.10000,0.90000
  7510,'CALIN33_01  ',  33.0000,1,  14,  63,   1,1.00764,  22.6734,1.10000,0.90000,1.10000,0.90000
  7511,'COST33_01   ',  33.0000,1,  14,  63,   1,0.95323,  -7.1959,1.10000,0.90000,1.10000,0.90000
  7512,'GUAII33_01  ',  33.0000,1,  14,  63,   1,1.03811,  29.7782,1.10000,0.90000,1.10000,0.90000
  7513,'GUAII33_02  ',  33.0000,1,  14,  63,  10,1.03599,  29.7185,1.10000,0.90000,1.10000,0.90000
  7514,'RDI.TER1    ',  33.0000,1,  14,  35,   1,1.00211,   4.8247,1.10000,0.90000,1.10000,0.90000
  7515,'MARCA13_01  ',  13.2000,1,  14,  35,   1,0.99544,  -2.7172,1.10000,0.90000,1.10000,0.90000
  7516,'CARRIZAL    ',  66.0000,1,  14,  35,   1,1.01106,  -4.0918,1.10000,0.90000,1.10000,0.90000
  7517,'CAUC33_01   ',  33.0000,1,  14,  63,   1,1.00544,  -5.5495,1.10000,0.90000,1.10000,0.90000
  7518,'ARGENTIN    ',  66.0000,1,  14,  35,   1,0.97854,  -4.9608,1.10000,0.90000,1.10000,0.90000
  7519,'SOLAR.SJ_33 ',  33.0000,1,  14,  63,  10,1.00052,   7.0581,1.10000,0.90000,1.10000,0.90000
  7520,'CH.ACOND    ',  66.0000,1,  14,  35,   1,1.00401,  -4.6360,1.10000,0.90000,1.10000,0.90000
  7527,'LC35 2      ',  66.0000,1,  14,  35,   1,0.90485,  -9.1511,1.10000,0.90000,1.10000,0.90000
  7530,'NSJ.TER1    ',  33.0000,1,  14,  63,  10,0.99254,  -1.6827,1.10000,0.90000,1.10000,0.90000
  7531,'ZAPATA      ',  66.0000,1,  14,  35,   1,1.00385,  -7.4233,1.10000,0.90000,1.10000,0.90000
  7532,'C.HONDA33   ',  33.0000,1,  14,  63,   1,0.94121,  -8.3800,1.10000,0.90000,1.10000,0.90000
  7533,'C.HONDA13   ',  13.2000,1,  14,  63,  10,0.95831,  -8.6618,1.10000,0.90000,1.10000,0.90000
  7534,'ANCHORIZ    ',  66.0000,1,  14,  35,   1,0.99308,  -3.8081,1.10000,0.90000,1.10000,0.90000
  7535,'C.ANZORE    ',  66.0000,1,  14,  35,   1,0.97846,  -4.9734,1.10000,0.90000,1.10000,0.90000
  7536,'ULLUM.N1_33 ',  33.0000,1,  14,  63,  10,1.00405,   8.5743,1.10000,0.90000,1.10000,0.90000
  7537,'CAPIZ A     ',  66.0000,1,  14,  35,   1,1.01589,  -5.8777,1.10000,0.90000,1.10000,0.90000
  7538,'CAPIZ B     ',  66.0000,1,  14,  35,   1,1.01589,  -5.8777,1.10000,0.90000,1.10000,0.90000
  7539,'ULLUM.N2_33 ',  33.0000,1,  14,  63,  10,1.00639,   7.9050,1.10000,0.90000,1.10000,0.90000
  7540,'ULLUM.3_33  ',  33.0000,1,  14,  63,  10,1.00448,   8.7428,1.10000,0.90000,1.10000,0.90000
  7541,'CANADITA33  ',  33.0000,1,  14,  63,   1,0.92316,  -9.6505,1.10000,0.90000,1.10000,0.90000
  7542,'L.BERROS33  ',  33.0000,1,  14,  63,   1,0.88050, -10.2071,1.10000,0.90000,1.10000,0.90000
  7543,'JACHAL      ',  33.0000,1,  14,  63,  10,0.96425,   8.9135,1.10000,0.90000,1.10000,0.90000
  7545,'IGGU33_1    ',  33.0000,1,  14,  63,  10,1.04404,  29.8319,1.10000,0.90000,1.10000,0.90000
  7546,'CAUC13_01   ',  13.2000,1,  14,  63,   1,1.00231,  -6.2081,1.10000,0.90000,1.10000,0.90000
  7547,'SANTA.R     ',  66.0000,1,  14,  35,   1,0.97065,  -8.5597,1.10000,0.90000,1.10000,0.90000
  7548,'SROS13_01   ',  13.2000,1,  14,  35,   1,1.01421,  -5.7964,1.10000,0.90000,1.10000,0.90000
  7549,'ULLUM.4_33  ',  33.0000,1,  14,  63,  10,1.00107,   7.0975,1.10000,0.90000,1.10000,0.90000
  7552,'EQEUM33_01  ',  33.0000,1,  14,  35,  10,1.00137,   6.9681,1.10000,0.90000,1.10000,0.90000
  7553,'EQEUM33_02  ',  33.0000,1,  14,  35,  10,1.00137,   6.9681,1.10000,0.90000,1.10000,0.90000
  7554,'EQEUM33_03  ',  33.0000,1,  14,  35,  10,1.00232,   7.1138,1.10000,0.90000,1.10000,0.90000
  7555,'EQEUM33_04  ',  33.0000,1,  14,  35,  10,1.00232,   7.1138,1.10000,0.90000,1.10000,0.90000
  7556,'BTUN66_01   ',  66.0000,1,  14,  35,   1,0.97005,  -7.9063,1.10000,0.90000,1.10000,0.90000
  7557,'BTUN13_01   ',  13.2000,1,  14,  35,  10,1.00487,  -8.1779,1.10000,0.90000,1.10000,0.90000
  7558,'TPORTICO    ',  66.0000,1,  14,  35,   1,0.96471,  -8.6770,1.10000,0.90000,1.10000,0.90000
  7559,'CATITAS     ',  66.0000,1,  14,  35,   1,0.95374,  -9.2797,1.10000,0.90000,1.10000,0.90000
  7560,'DORMID      ',  66.0000,1,  14,  35,   1,0.93967, -10.4200,1.10000,0.90000,1.10000,0.90000
  7561,'LA.PAZ      ',  66.0000,1,  14,  35,  10,0.93080, -11.1256,1.10000,0.90000,1.10000,0.90000
  7562,'PSSR33      ',  33.0000,1,  14,  35,  10,1.00429,  10.5017,1.10000,0.90000,1.10000,0.90000
  7563,'GALVE66_01  ',  66.0000,1,  14,  35,   1,0.96328,   0.8956,1.10000,0.90000,1.10000,0.90000
  7564,'GALVE13_01  ',  13.2000,1,  14,  35,   1,0.95371,  -0.7524,1.10000,0.90000,1.10000,0.90000
  7565,'PSSR33_01   ',  33.0000,1,  14,  35,  10,1.00623,  10.6808,1.10000,0.90000,1.10000,0.90000
  7566,'PSSR33_02   ',  33.0000,1,  14,  35,  10,1.00614,  10.6679,1.10000,0.90000,1.10000,0.90000
  7567,'CALIN13_01  ',  13.2000,1,  14,  63,   1,1.00661,  22.6250,1.10000,0.90000,1.10000,0.90000
  7568,'LBEB33_01   ',  33.0000,1,  14,  63,   1,0.95399,  -6.3624,1.10000,0.90000,1.10000,0.90000
  7569,'COST13_01   ',  13.2000,1,  14,  63,   1,0.94525,  -8.5696,1.10000,0.90000,1.10000,0.90000
  7570,'PSMARCA     ',  33.0000,1,  14,  35,  10,0.99391,  -1.8903,1.10000,0.90000,1.10000,0.90000
  7571,'ULL.4_33    ',  33.0000,1,  14,  63,  10,1.00206,   7.1197,1.10000,0.90000,1.10000,0.90000
  7572,'PSMARCA_01  ',  33.0000,1,  14,  35,  10,0.99413,  -1.8789,1.10000,0.90000,1.10000,0.90000
  7573,'G.CRUZ A    ',  66.0000,1,  14,  35,   1,0.92912, -10.4042,1.10000,0.90000,1.10000,0.90000
  7574,'PSMARCA_02  ',  33.0000,1,  14,  35,  10,1.00358,  -1.7051,1.10000,0.90000,1.10000,0.90000
  7575,'CARBOM.A    ',  66.0000,1,  14,  35,   1,0.96772,  -6.2003,1.10000,0.90000,1.10000,0.90000
  7577,'G.CRUZ B    ',  66.0000,1,  14,  35,   1,0.96577,  -6.3030,1.10000,0.90000,1.10000,0.90000
  7578,'MCAS13_01   ',  13.2000,1,  14,  35,   1,0.99294,  -5.5253,1.10000,0.90000,1.10000,0.90000
  7579,'CARBOM.B    ',  66.0000,1,  14,  35,   1,0.96772,  -6.2003,1.10000,0.90000,1.10000,0.90000
  7581,'CH.SMART    ',  66.0000,1,  14,  35,   1,0.97861,  -5.7595,1.10000,0.90000,1.10000,0.90000
  7582,'MCAS66_01   ',  66.0000,1,  14,  35,   1,0.99928,  -4.6977,1.10000,0.90000,1.10000,0.90000
  7583,'C.HONDA13   ',  13.2000,1,  14,  63,  10,0.94693,  -8.6618,1.10000,0.90000,1.10000,0.90000
  7584,'PIQ.MCAS    ',  66.0000,1,  14,  35,   1,0.99899,  -4.7087,1.10000,0.90000,1.10000,0.90000
  7585,'GUAII08_01  ',   0.8000,1,  14,  63,  10,1.04271,  32.1899,1.10000,0.90000,1.10000,0.90000
  7586,'LAMBARE     ',  66.0000,1,  14,  35,   1,0.99744,  -4.4944,1.10000,0.90000,1.10000,0.90000
  7587,'SULL33_01   ',  33.0000,1,  14,  63,  10,1.00137,   7.1015,1.10000,0.90000,1.10000,0.90000
  7588,'SAN MART    ',  66.0000,1,  14,  35,   1,0.94580,  -9.2134,1.10000,0.90000,1.10000,0.90000
  7589,'TOCO33_01   ',  33.0000,1,  14,  63,  10,1.04527,  31.7509,1.10000,0.90000,1.10000,0.90000
  7590,'VARGAS      ',  66.0000,1,  14,  35,   1,0.98106,   1.9847,1.10000,0.90000,1.10000,0.90000
  7591,'25DEMAYO    ',  66.0000,1,  14,  35,   1,0.98464,   2.0684,1.10000,0.90000,1.10000,0.90000
  7592,'TOCO33_02   ',  33.0000,1,  14,  63,  10,1.04611,  31.8004,1.10000,0.90000,1.10000,0.90000
  7593,'EL.MARCADO  ',  66.0000,1,  14,  35,   1,0.99841,  -4.1226,1.10000,0.90000,1.10000,0.90000
  7599,'ZOND33_02   ',  33.0000,1,  14,  63,  10,1.04240,  29.8789,1.10000,0.90000,1.10000,0.90000
  7600,'ANCHDI14    ',  11.0000,2,  14,  35,   7,0.98941,  -2.0015,1.10000,0.90000,1.10000,0.90000
  7603,'ETIGHI12    ',  13.2000,2,  14,  35,   6,1.00000,   4.7508,1.10000,0.90000,1.10000,0.90000
  7604,'LDCUTG26    ',  11.5000,2,  14,  35,   4,1.04000,   4.0912,1.10000,0.90000,1.10000,0.90000
  7605,'LDCUTG27    ',  11.5000,2,  14,  35,   4,1.04000,   4.0912,1.10000,0.90000,1.10000,0.90000
  7607,'QUEMFV01    ',   0.8000,2,  14,  35,  12,1.00000,  10.0186,1.10000,0.90000,1.10000,0.90000
  7608,'ALGRFV01    ',   0.4000,2,  14,  63,  12,1.02089,  -4.3600,1.10000,0.90000,1.10000,0.90000
  7609,'HESRFV      ',   0.8000,2,  14,  35,  12,1.04072,  -4.2129,1.10000,0.90000,1.10000,0.90000
  7610,'LUNLHI01    ',   6.6000,2,  14,  35,   6,1.00253,  -3.0580,1.10000,0.90000,1.10000,0.90000
  7612,'ULN1FV01    ',   0.7000,2,  14,  63,  12,1.00000,  10.4830,1.10000,0.90000,1.10000,0.90000
  7613,'ULN2FV01    ',   0.4000,2,  14,  63,  12,1.00000,  12.1758,1.10000,0.90000,1.10000,0.90000
  7614,'ULL3FV01    ',   0.4000,2,  14,  63,  12,1.00000,  12.5750,1.10000,0.90000,1.10000,0.90000
  7615,'CARRHI01    ',  13.2000,2,  14,  35,   6,1.05000,  -0.1937,1.10000,0.90000,1.10000,0.90000
  7616,'CARRHI02    ',  13.2000,2,  14,  35,   6,1.05000,  -0.1937,1.10000,0.90000,1.10000,0.90000
  7617,'TAMBFV01    ',   0.4000,2,  14,  63,  12,1.00000,  24.7209,1.10000,0.90000,1.10000,0.90000
  7618,'SMARHI13    ',  13.2000,2,  14,  35,   6,1.00007,  -4.0507,1.10000,0.90000,1.10000,0.90000
  7619,'ULL4FV01    ',   0.6000,2,  14,  63,  12,1.00000,   9.0197,1.10000,0.90000,1.10000,0.90000
  7620,'SJUAFV01    ',  13.2000,1,  14,  63,  12,0.95431,  -8.9149,1.10000,0.90000,1.10000,0.90000
  7621,'ULLUHI01    ',  13.2000,2,  14,  63,   6,1.05000,   3.1042,1.10000,0.90000,1.10000,0.90000
  7622,'ULLUHI02    ',  13.2000,2,  14,  63,   6,1.05000,   3.1042,1.10000,0.90000,1.10000,0.90000
  7624,'UL42FV01    ',   0.6000,2,  14,  63,  12,1.00000,   9.4670,1.10000,0.90000,1.10000,0.90000
  7625,'PNEGHI01    ',  13.8000,2,  14,  35,   6,1.05000,   6.1339,1.10000,0.90000,1.10000,0.90000
  7626,'PNEGHI02    ',  13.8000,2,  14,  35,   6,1.05000,   6.1339,1.10000,0.90000,1.10000,0.90000
  7627,'QUEMFV02    ',   0.8000,2,  14,  35,  12,1.00000,  10.0186,1.10000,0.90000,1.10000,0.90000
  7629,'SULLFV01    ',   0.8000,2,  14,  63,  12,1.00000,  12.4756,1.10000,0.90000,1.10000,0.90000
  7630,'ZONDFV01    ',   0.8000,2,  14,  63,  12,1.05000,  32.7436,1.10000,0.90000,1.10000,0.90000
  7631,'LREYHB01    ',  13.8000,2,  14,  35,   6,0.94001,   7.0383,1.10000,0.90000,1.10000,0.90000
...
0 / END OF BUS DATA, BEGIN LOAD DATA
@!   I,'ID',STAT,AREA,ZONE,      PL,        QL,        IP,        IQ,        YP,        YQ, OWNER,SCALE,INTRPT,  DGENP,     DGENQ, DGENF
  6010,'99',   1,  12,  34,   333.910,    47.016,     0.000,     0.000,     0.000,     0.000,  10,    1,  0,     0.000,     0.000,   0
  7201,'1 ',   1,  14,  63,    46.822,    16.388,     0.000,     0.000,     0.000,     0.000,   1,    1,  0,     0.000,     0.000,   0
  7205,'1 ',   1,  14,  35,    13.000,     1.000,     0.000,     0.000,     0.000,     0.000,   1,    0,  0,     0.000,     0.000,   0
  7207,'1 ',   1,  14,  63,    39.962,    13.130,     0.000,     0.000,     0.000,     0.000,   1,    1,  0,     0.000,     0.000,   0
  7211,'1 ',   1,  14,   1,     9.955,     3.285,     0.000,     0.000,     0.000,     0.000,   1,    1,  0,     0.000,     0.000,   0
  7212,'1 ',   1,  14,  63,     4.631,     1.545,     0.000,     0.000,     0.000,     0.000,   1,    1,  0,     0.000,     0.000,   0
  7218,'1 ',   1,  14,  35,    50.747,    16.936,     0.000,     0.000,     0.000,     0.000,   1,    1,  0,     0.000,     0.000,   0
  7219,'1 ',   1,  14,  35,    49.367,    16.476,     0.000,     0.000,     0.000,     0.000,   1,    1,  0,     0.000,     0.000,   0
  7220,'2 ',   1,  14,  35,    32.095,    10.698,     0.000,     0.000,     0.000,     0.000,   1,    1,  0,     0.000,     0.000,   0
  7221,'1 ',   0,  14,  35,    18.372,     6.056,     0.000,     0.000,     0.000,     0.000,   1,    1,  0,     0.000,     0.000,   0
  7222,'1 ',   1,  14,  35,    48.193,    16.082,     0.000,     0.000,     0.000,     0.000,   1,    1,  0,     0.000,     0.000,   0
  7223,'1 ',   1,  14,  35,    45.841,    13.607,     0.000,     0.000,     0.000,     0.000,   1,    1,  0,     0.000,     0.000,   0
  7229,'1 ',   1,  14,  35,    31.260,    10.420,     0.000,     0.000,     0.000,     0.000,   1,    1,  0,     0.000,     0.000,   0
  7230,'1 ',   1,  14,  35,    15.000,     5.000,     0.000,     0.000,     0.000,     0.000,   2,    0,  0,     0.000,     0.000,   0
  7231,'1 ',   1,  14,  35,     1.089,     0.343,     0.000,     0.000,     0.000,     0.000,   1,    1,  0,     0.000,     0.000,   0
  7233,'1 ',   0,  14,  63,     0.104,     0.104,     0.000,     0.000,     0.000,     0.000,   1,    1,  0,     0.000,     0.000,   0
  7236,'1 ',   1,  14,  35,    44.000,     7.414,     0.000,     0.000,     0.000,     0.000,   2,    0,  0,     0.000,     0.000,   0
  7238,'1 ',   1,  14,  35,    23.509,     8.662,     0.000,     0.000,     0.000,     0.000,   1,    1,  0,     0.000,     0.000,   0
  7239,'1 ',   1,  14,  63,    38.628,     7.726,     0.000,     0.000,     0.000,     0.000,   1,    1,  0,     0.000,     0.000,   0
  7242,'1 ',   1,  14,  35,    55.132,    18.923,     0.000,     0.000,     0.000,     0.000,   1,    1,  0,     0.000,     0.000,   0
  7244,'1 ',   1,  14,  63,    25.000,     5.000,     0.000,     0.000,     0.000,     0.000,   2,    0,  0,     0.000,     0.000,   0
  7245,'1 ',   1,  14,  35,     0.000,     0.000,     0.000,     0.000,     0.000,     0.000,   1,    1,  0,     0.000,     0.000,   0
  7247,'1 ',   1,  14,  63,    30.519,     7.998,     0.000,     0.000,     0.000,     0.000,   1,    1,  0,     0.000,     0.000,   0
  7248,'1 ',   1,  14,  35,    31.737,    12.321,     0.000,     0.000,     0.000,     0.000,   1,    1,  0,     0.000,     0.000,   0
  7249,'1 ',   1,  14,  35,    10.025,     2.992,     0.000,     0.000,     0.000,     0.000,   1,    1,  0,     0.000,     0.000,   0
  7252,'1 ',   1,  14,  35,    55.951,    18.673,     0.000,     0.000,     0.000,     0.000,   1,    1,  0,     0.000,     0.000,   0
  7254,'1 ',   1,  14,  35,    19.748,     6.591,     0.000,     0.000,     0.000,     0.000,   1,    1,  0,     0.000,     0.000,   0
  7257,'1 ',   1,  14,  35,    20.297,    12.629,     0.000,     0.000,     0.000,     0.000,   1,    1,  0,     0.000,     0.000,   0
  7258,'1 ',   1,  14,  63,    29.467,     8.251,     0.000,     0.000,     0.000,     0.000,   1,    1,  0,     0.000,     0.000,   0
  7259,'1 ',   1,  14,  63,     6.577,     2.162,     0.000,     0.000,     0.000,     0.000,   1,    1,  0,     0.000,     0.000,   0
  7260,'1 ',   1,  14,  35,    59.327,    22.381,     0.000,     0.000,     0.000,     0.000,   1,    1,  0,     0.000,     0.000,   0
  7270,'1 ',   1,  14,  63,     0.681,     0.229,     0.000,     0.000,     0.000,     0.000,   1,    1,  0,     0.000,     0.000,   0
  7271,'1 ',   1,  14,  63,     5.787,     1.928,     0.000,     0.000,     0.000,     0.000,   1,    1,  0,     0.000,     0.000,   0
  7272,'1 ',   1,  14,  63,     4.046,     1.351,     0.000,     0.000,     0.000,     0.000,   1,    1,  0,     0.000,     0.000,   0
  7273,'1 ',   1,  14,  35,     8.348,     3.553,     0.000,     0.000,     0.000,     0.000,   1,    1,  0,     0.000,     0.000,   0
  7500,'1 ',   1,  14,  35,    40.752,    13.601,     0.000,     0.000,     0.000,     0.000,   1,    1,  0,     0.000,     0.000,   0
  7502,'1 ',   1,  14,  63,    91.617,    30.234,     0.000,     0.000,     0.000,     0.000,   1,    1,  0,     0.000,     0.000,   0
  7503,'1 ',   1,  14,  63,    40.638,    13.562,     0.000,     0.000,     0.000,     0.000,   1,    1,  0,     0.000,     0.000,   0
  7504,'1 ',   1,  14,  63,    15.083,     5.033,     0.000,     0.000,     0.000,     0.000,   1,    1,  0,     0.000,     0.000,   0
  7508,'1 ',   1,  14,  35,     7.153,     2.387,     0.000,     0.000,     0.000,     0.000,   1,    1,  0,     0.000,     0.000,   0
  7509,'1 ',   1,  14,  63,    11.523,     6.902,     0.000,     0.000,     0.000,     0.000,   1,    1,  0,     0.000,     0.000,   0
  7510,'1 ',   1,  14,  63,     5.840,     3.592,     0.000,     0.000,     0.000,     0.000,   1,    1,  0,     0.000,     0.000,   0
  7511,'1 ',   1,  14,  63,    21.816,     7.170,     0.000,     0.000,     0.000,     0.000,   1,    1,  0,     0.000,     0.000,   0
  7513,'1 ',   1,  14,  63,     0.342,     0.228,     0.000,     0.000,     0.000,     0.000,  10,    1,  0,     0.000,     0.000,   0
  7515,'1 ',   1,  14,  35,     1.620,     0.541,     0.000,     0.000,     0.000,     0.000,   1,    1,  0,     0.000,     0.000,   0
  7516,'1 ',   1,  14,  35,     2.138,     0.715,     0.000,     0.000,     0.000,     0.000,   1,    1,  0,     0.000,     0.000,   0
  7517,'1 ',   1,  14,  63,    17.558,     5.853,     0.000,     0.000,     0.000,     0.000,   1,    1,  0,     0.000,     0.000,   0
  7518,'1 ',   1,  14,  35,    45.968,    15.341,     0.000,     0.000,     0.000,     0.000,   1,    1,  0,     0.000,     0.000,   0
  7520,'1 ',   1,  14,  35,     0.310,     0.103,     0.000,     0.000,     0.000,     0.000,   1,    1,  0,     0.000,     0.000,   0
  7527,'1 ',   1,  14,  35,    34.061,    11.367,     0.000,     0.000,     0.000,     0.000,   1,    1,  0,     0.000,     0.000,   0
  7531,'1 ',   1,  14,  35,    12.715,     4.243,     0.000,     0.000,     0.000,     0.000,   1,    1,  0,     0.000,     0.000,   0
  7532,'1 ',   1,  14,  63,    31.306,    10.099,     0.000,     0.000,     0.000,     0.000,   1,    1,  0,     0.000,     0.000,   0
  7534,'1 ',   1,  14,  35,     4.016,     1.339,     0.000,     0.000,     0.000,     0.000,   1,    1,  0,     0.000,     0.000,   0
  7535,'1 ',   1,  14,  35,     0.202,     0.068,     0.000,     0.000,     0.000,     0.000,   1,    1,  0,     0.000,     0.000,   0
  7537,'1 ',   1,  14,  35,    10.559,     3.524,     0.000,     0.000,     0.000,     0.000,   1,    1,  0,     0.000,     0.000,   0
  7538,'1 ',   1,  14,  35,    10.916,     3.643,     0.000,     0.000,     0.000,     0.000,   1,    1,  0,     0.000,     0.000,   0
  7541,'1 ',   1,  14,  63,     8.807,     2.943,     0.000,     0.000,     0.000,     0.000,   1,    1,  0,     0.000,     0.000,   0
  7542,'1 ',   1,  14,  63,     6.275,     2.099,     0.000,     0.000,     0.000,     0.000,   1,    1,  0,     0.000,     0.000,   0
  7543,'1 ',   1,  14,  63,     9.275,     2.953,     0.000,     0.000,     0.000,     0.000,   1,    1,  0,     0.000,     0.000,   0
  7546,'2 ',   1,  14,  63,    17.558,     5.853,     0.000,     0.000,     0.000,     0.000,   1,    1,  0,     0.000,     0.000,   0
  7556,'1 ',   1,  14,  35,    30.907,    10.421,     0.000,     0.000,     0.000,     0.000,   1,    1,  0,     0.000,     0.000,   0
  7558,'1 ',   1,  14,  35,     5.447,     1.539,     0.000,     0.000,     0.000,     0.000,  10,    1,  0,     0.000,     0.000,   0
  7559,'1 ',   1,  14,  35,     3.553,     1.421,     0.000,     0.000,     0.000,     0.000,  10,    1,  0,     0.000,     0.000,   0
  7560,'1 ',   1,  14,  35,     2.724,     0.947,     0.000,     0.000,     0.000,     0.000,  10,    1,  0,     0.000,     0.000,   0
  7561,'1 ',   1,  14,  35,     4.287,     1.390,     0.000,     0.000,     0.000,     0.000,  12,    1,  0,     0.000,     0.000,   0
  7563,'1 ',   1,  14,  35,    13.517,     4.544,     0.000,     0.000,     0.000,     0.000,   1,    1,  0,     0.000,     0.000,   0
  7564,'1 ',   1,  14,  35,    13.225,     4.445,     0.000,     0.000,     0.000,     0.000,   1,    1,  0,     0.000,     0.000,   0
  7568,'1 ',   1,  14,  63,    11.523,     3.480,     0.000,     0.000,     0.000,     0.000,   1,    1,  0,     0.000,     0.000,   0
  7569,'1 ',   1,  14,  63,    21.816,     7.170,     0.000,     0.000,     0.000,     0.000,   1,    1,  0,     0.000,     0.000,   0
  7573,'1 ',   1,  14,  35,    38.101,    13.974,     0.000,     0.000,     0.000,     0.000,   1,    1,  0,     0.000,     0.000,   0
  7575,'1 ',   1,  14,  35,    36.272,    12.103,     0.000,     0.000,     0.000,     0.000,   1,    1,  0,     0.000,     0.000,   0
  7577,'1 ',   1,  14,  35,    23.000,     7.046,     0.000,     0.000,     0.000,     0.000,   1,    1,  0,     0.000,     0.000,   0
  7578,'1 ',   1,  14,  35,     7.301,     3.212,     0.000,     0.000,     0.000,     0.000,   1,    1,  0,     0.000,     0.000,   0
  7579,'1 ',   1,  14,  35,     0.000,     0.000,     0.000,     0.000,     0.000,     0.000,   1,    1,  0,     0.000,     0.000,   0
  7581,'1 ',   1,  14,  35,     6.067,     2.024,     0.000,     0.000,     0.000,     0.000,   1,    1,  0,     0.000,     0.000,   0
  7582,'1 ',   1,  14,  35,    16.555,     5.535,     0.000,     0.000,     0.000,     0.000,   1,    1,  0,     0.000,     0.000,   0
  7584,'1 ',   1,  14,  35,    17.560,     5.871,     0.000,     0.000,     0.000,     0.000,   1,    1,  0,     0.000,     0.000,   0
  7586,'1 ',   1,  14,  35,     3.843,     1.285,     0.000,     0.000,     0.000,     0.000,   1,    1,  0,     0.000,     0.000,   0
  7588,'1 ',   0,  14,  35,     0.000,     0.000,     0.000,     0.000,     0.000,     0.000,   1,    1,  0,     0.000,     0.000,   0
  7604,'1 ',   1,  14,  35,     1.200,     0.800,     0.000,     0.000,     0.000,     0.000,   3,    0,  0,     0.000,     0.000,   0
  7605,'1 ',   1,  14,  35,     1.200,     0.800,     0.000,     0.000,     0.000,     0.000,   3,    0,  0,     0.000,     0.000,   0
  7620,'1 ',   1,  14,  63,    36.844,    12.297,     0.000,     0.000,     0.000,     0.000,   1,    1,  0,     0.000,     0.000,   0
  7651,'1 ',   1,  14,  35,     3.001,     1.500,     0.000,     0.000,     0.000,     0.000,   3,    0,  0,     0.000,     0.000,   0
  7652,'1 ',   1,  14,  35,     3.001,     1.500,     0.000,     0.000,     0.000,     0.000,   3,    0,  0,     0.000,     0.000,   0
  7653,'1 ',   1,  14,  35,     4.000,     2.030,     0.000,     0.000,     0.000,     0.000,   3,    0,  0,     0.000,     0.000,   0
  7810,'1 ',   1,  14,  63,     6.563,     2.190,     0.000,     0.000,     0.000,     0.000,   1,    1,  0,     0.000,     0.000,   0
  7813,'1 ',   1,  14,  35,    38.274,    12.852,     0.000,     0.000,     0.000,     0.000,   1,    1,  0,     0.000,     0.000,   0
  7814,'1 ',   1,  14,  35,    12.600,     4.158,     0.000,     0.000,     0.000,     0.000,   1,    1,  0,     0.000,     0.000,   0
  7817,'1 ',   1,  14,  35,     8.959,     2.991,     0.000,     0.000,     0.000,     0.000,   1,    1,  0,     0.000,     0.000,   0
  7820,'1 ',   1,  14,  35,     4.016,     1.339,     0.000,     0.000,     0.000,     0.000,   1,    1,  0,     0.000,     0.000,   0
  7836,'1 ',   1,  14,  35,     3.258,     1.088,     0.000,     0.000,     0.000,     0.000,   1,    1,  0,     0.000,     0.000,   0
  7842,'1 ',   1,  14,  35,     2.828,     0.944,     0.000,     0.000,     0.000,     0.000,   1,    1,  0,     0.000,     0.000,   0
  7842,'2 ',   1,  14,  35,     1.461,     0.486,     0.000,     0.000,     0.000,     0.000,   1,    1,  0,     0.000,     0.000,   0
  7843,'1 ',   1,  14,  63,     3.092,     0.985,     0.000,     0.000,     0.000,     0.000,   1,    1,  0,     0.000,     0.000,   0
  7890,'1 ',   1,  14,  35,    75.746,    27.782,     0.000,     0.000,     0.000,     0.000,   1,    1,  0,     0.000,     0.000,   0
0 / END OF LOAD DATA, BEGIN FIXED SHUNT DATA
@!   I,'ID',STATUS,  GL,        BL
0 / END OF FIXED SHUNT DATA, BEGIN GENERATOR DATA
@!   I,'ID',      PG,        QG,        QT,        QB,     VS,    IREG,     MBASE,     ZR,         ZX,         RT,         XT,     GTAP,STAT, RMPCT,      PT,        PB,    O1,    F1,  O2,    F2,  O3,    F3,  O4,    F4,WMOD, WPF,NREG
  7003,'99',   140.413,    63.182,    63.182,    63.182,1.01540,  7003,   100.000, 0.00000E+0, 1.00000E+0, 0.00000E+0, 0.00000E+0,1.00000,1,  100.0,   140.413,   140.413,  10,1.0000
  7600,'1 ',     9.730,     0.000,     7.000,    -7.000,1.00000,  7600,    12.150, 0.00000E+0, 1.53000E-1, 0.00000E+0, 0.00000E+0,1.00000,0,  100.0,    10.000,     0.000,   4,1.0000
  7600,'2 ',     9.730,     0.000,     7.000,    -7.000,1.00000,  7600,    12.150, 0.00000E+0, 1.53000E-1, 0.00000E+0, 0.00000E+0,1.00000,0,  100.0,    10.000,     0.000,   4,1.0000
  7600,'3 ',     9.730,     0.000,     7.000,    -7.000,1.00000,  7600,    12.150, 0.00000E+0, 1.53000E-1, 0.00000E+0, 0.00000E+0,1.00000,0,  100.0,    10.000,     0.000,   4,1.0000
  7600,'4 ',     9.730,     0.000,     7.000,    -7.000,1.00000,  7600,    12.150, 0.00000E+0, 1.53000E-1, 0.00000E+0, 0.00000E+0,1.00000,0,  100.0,    10.000,     0.000,   4,1.0000
  7603,'1 ',     6.000,     2.902,     3.867,    -5.067,1.00000,  7603,     8.000, 7.00000E-5, 2.60000E-1, 0.00000E+0, 0.00000E+0,1.00000,1,  100.0,     7.200,     1.400,   6,1.0000
  7603,'2 ',     6.000,     2.262,     3.867,    -5.067,1.00000,  7603,     8.000, 7.00000E-5, 2.60000E-1, 0.00000E+0, 0.00000E+0,1.00000,0,  100.0,     7.200,     1.400,   6,1.0000
  7604,'26',    35.000,    11.762,    32.500,   -19.500,1.04000,  7604,    65.700, 0.00000E+0, 2.20000E-1, 0.00000E+0, 0.00000E+0,1.00000,1,  100.0,    45.000,     0.000,   4,1.0000
  7605,'27',    35.000,    11.762,    32.500,   -19.500,1.04000,  7605,    65.700, 0.00000E+0, 2.20000E-1, 0.00000E+0, 0.00000E+0,1.00000,1,  100.0,    45.000,     0.000,   4,1.0000
  7607,'1 ',    80.000,    -1.632,    50.000,   -50.000,1.00000,  7607,   100.000, 0.00000E+0, 1.00000E+0, 0.00000E+0, 0.00000E+0,1.00000,1,  100.0,   100.000,     0.000,  12,1.0000,   0,   1.0,   0,   1.0,   0,   1.0, 1, 1.0000
  7608,'1 ',     4.400,     2.600,     2.600,    -2.600,1.05000,  7608,     5.500, 0.00000E+0, 9.99900E+3, 0.00000E+0, 0.00000E+0,1.00000,1,  100.0,     5.500,     0.000,  12,1.0000,   0,   1.0,   0,   1.0,   0,   1.0, 1, 1.0000
  7609,'1 ',     3.500,     3.360,     3.360,    -2.700,1.05000,  7609,     5.600, 0.00000E+0, 9.99900E+3, 0.00000E+0, 0.00000E+0,1.00000,1,  100.0,     5.600,     0.000,  12,1.0000,   0,   1.0,   0,   1.0,   0,   1.0, 1, 1.0000
  7610,'1 ',     6.300,     3.140,     3.140,    -3.140,1.05000,  7500,     7.200, 0.00000E+0, 2.60000E-1, 0.00000E+0, 0.00000E+0,1.00000,1,  100.0,     6.500,     0.000,   1,1.0000
  7612,'1 ',    17.100,    -1.786,    12.100,   -12.100,1.00000,  7612,    30.680, 0.00000E+0, 9.99990E+4, 0.00000E+0, 0.00000E+0,1.00000,1,  100.0,    25.000,     0.000,  12,1.0000,   0,   1.0,   0,   1.0,   0,   1.0, 1, 1.0000
  7613,'1 ',    20.985,    -1.006,    12.100,   -12.100,1.00000,  7613,    30.680, 0.00000E+0, 9.99990E+4, 0.00000E+0, 0.00000E+0,1.00000,1,  100.0,    30.680,     0.000,  12,1.0000,   0,   1.0,   0,   1.0,   0,   1.0, 1, 1.0000
  7614,'1 ',    26.854,    -0.895,    15.500,   -15.500,1.00000,  7614,    39.260, 0.00000E+0, 9.99999E+5, 0.00000E+0, 0.00000E+0,1.00000,1,  100.0,    39.260,     0.000,  12,1.0000,   0,   1.0,   0,   1.0,   0,   1.0, 1, 1.0000
  7615,'1 ',     8.500,     5.105,     6.000,    -5.000,1.05000,  7615,    10.620, 0.00000E+0, 1.60000E-1, 0.00000E+0, 0.00000E+0,1.00000,1,  100.0,     8.500,     1.500,   6,1.0000
  7616,'2 ',     8.500,     5.105,     6.000,    -5.000,1.05000,  7616,    10.620, 0.00000E+0, 1.60000E-1, 0.00000E+0, 0.00000E+0,1.00000,1,  100.0,     8.500,     1.500,   6,1.0000
  7617,'1 ',     2.400,    -0.466,     1.300,    -1.300,1.00000,  7617,     3.000, 0.00000E+0, 9.99990E+4, 0.00000E+0, 0.00000E+0,1.00000,1,  100.0,     3.000,     0.000,  12,1.0000,   0,   1.0,   0,   1.0,   0,   1.0, 1, 1.0000
  7618,'1 ',     2.000,     1.500,     1.500,    -1.000,1.02000,  7618,     2.500, 0.00000E+0, 2.80000E-1, 0.00000E+0, 0.00000E+0,1.00000,1,  100.0,     2.000,     0.700,   6,1.0000
  7618,'2 ',     2.000,     1.500,     1.500,    -1.000,1.02000,  7618,     2.500, 0.00000E+0, 2.80000E-1, 0.00000E+0, 0.00000E+0,1.00000,1,  100.0,     2.000,     0.700,   6,1.0000
  7618,'3 ',     2.000,     0.662,     1.500,    -1.000,1.02000,  7618,     2.500, 0.00000E+0, 2.80000E-1, 0.00000E+0, 0.00000E+0,1.00000,0,  100.0,     2.000,     0.700,   6,1.0000
  7619,'1 ',     9.234,    -0.139,     6.540,    -6.540,1.00000,  7619,    16.500, 0.00000E+0, 9.99990E+4, 0.00000E+0, 0.00000E+0,1.00000,1,  100.0,    13.500,     0.000,  12,1.0000,   0,   1.0,   0,   1.0,   0,   1.0, 1, 1.0000
  7621,'1 ',    20.000,    10.694,    11.833,   -18.000,1.05000,  7621,    27.250, 0.00000E+0, 1.76000E-1, 0.00000E+0, 0.00000E+0,1.00000,1,  100.0,    21.000,     4.200,   6,1.0000
  7622,'2 ',    20.000,    10.694,    11.833,   -18.000,1.05000,  7622,    27.250, 0.00000E+0, 1.76000E-1, 0.00000E+0, 0.00000E+0,1.00000,1,  100.0,    21.000,     4.200,   6,1.0000
  7624,'1 ',     5.472,    -0.162,     3.870,    -3.870,1.00000,  7624,     8.000, 0.00000E+0, 9.99900E+3, 0.00000E+0, 0.00000E+0,1.00000,1,  100.0,     8.000,     0.000,  12,1.0000,   0,   1.0,   0,   1.0,   0,   1.0, 1, 1.0000
  7625,'1 ',    28.000,    11.466,    20.000,   -10.000,1.05000,  7625,    37.000, 0.00000E+0, 1.95000E-1, 0.00000E+0, 0.00000E+0,1.00000,1,  100.0,    31.640,     0.000,   6,1.0000
  7626,'2 ',    28.000,    11.466,    20.000,   -10.000,1.05000,  7626,    37.000, 0.00000E+0, 1.95000E-1, 0.00000E+0, 0.00000E+0,1.00000,1,  100.0,    31.640,     0.000,   6,1.0000
  7627,'1 ',    80.000,    -1.632,    50.000,   -50.000,1.00000,  7627,   100.000, 0.00000E+0, 1.00000E+0, 0.00000E+0, 0.00000E+0,1.00000,1,  100.0,   100.000,     0.000,  12,1.0000,   0,   1.0,   0,   1.0,   0,   1.0, 1, 1.0000
  7629,'1 ',    53.352,     1.722,    42.000,   -42.000,1.00000,  7629,    96.320, 0.00000E+0, 9.99990E+4, 0.00000E+0, 0.00000E+0,1.00000,1,  100.0,    78.000,     0.000,  12,1.0000,   0,   1.0,   0,   1.0,   0,   1.0, 1, 1.0000
  7630,'1 ',    80.000,    13.668,    48.430,   -48.430,1.05000,  7630,   116.960, 0.00000E+0, 9.99900E+3, 0.00000E+0, 0.00000E+0,1.00000,1,  100.0,   100.000,     0.000,  12,1.0000,   0,   1.0,   0,   1.0,   0,   1.0, 1, 1.0000
  7631,'1 ',   100.000,    50.857,    50.857,   -35.429,1.05000,  7631,   128.000, 0.00000E+0, 2.10000E-1, 0.00000E+0, 0.00000E+0,1.00000,1,  100.0,   115.000,  -100.000,   6,1.0000
  7632,'2 ',    80.000,    50.021,    50.857,   -35.429,1.05000,  7632,   128.000, 0.00000E+0, 2.10000E-1, 0.00000E+0, 0.00000E+0,1.00000,0,  100.0,   115.000,  -100.000,   6,1.0000
  7633,'1 ',    64.000,    15.802,    40.000,   -40.000,1.05000,  7633,    80.000, 9.99900E+3, 9.99900E+3, 0.00000E+0, 0.00000E+0,1.00000,1,  100.0,    80.000,     0.000,  12,1.0000
  7634,'1 ',    80.000,    -4.096,    64.130,   -64.130,1.00000,  7634,   118.800, 9.99900E+3, 1.00000E+0, 0.00000E+0, 1.00000E+0,1.00000,1,  100.0,   100.000,     0.000,  12,1.0000,   0,   1.0,   0,   1.0,   0,   1.0, 1, 1.0000
  7635,'1 ',    80.000,    -3.991,    64.130,   -64.130,1.00000,  7635,   118.800, 9.99900E+3, 1.00000E+0, 0.00000E+0, 1.00000E+0,1.00000,1,  100.0,   100.000,     0.000,  12,1.0000,   0,   1.0,   0,   1.0,   0,   1.0, 1, 1.0000
  7636,'1 ',     4.000,    -0.198,     3.000,    -3.840,1.00000,  7636,     5.000, 9.99990E+4, 1.00000E+0, 0.00000E+0, 1.00000E+0,1.00000,1,  100.0,     5.000,     0.000,  12,1.0000,   0,   1.0,   0,   1.0,   0,   1.0, 1, 1.0000
  7637,'1 ',    56.760,     5.479,    42.570,   -42.570,1.05000,  7637,    68.950, 0.00000E+0, 9.99900E+3, 0.00000E+0, 0.00000E+0,1.00000,1,  100.0,    70.950,     0.000,  12,1.0000,   0,   1.0,   0,   1.0,   0,   1.0, 1, 1.0000
  7638,'1 ',     4.000,     2.420,     2.420,    -2.420,1.05000,  7638,     5.560, 1.00000E+3, 9.99990E+4, 0.00000E+0, 0.00000E+0,1.00000,1,  100.0,     5.000,     0.000,  12,1.0000,   0,   1.0,   0,   1.0,   0,   1.0, 1, 1.0000
  7639,'1 ',    21.600,    -1.335,    20.000,   -20.000,1.04000,  7639,    32.400, 0.00000E+0, 9.99900E+3, 0.00000E+0, 0.00000E+0,1.00000,1,  100.0,    27.000,     0.000,  12,1.0000,   0,   1.0,   0,   1.0,   0,   1.0, 1, 1.0000
  7641,'1 ',    60.000,    -0.534,    60.720,   -60.720,1.00000,  7641,   116.100, 0.00000E+0, 9.99900E+3, 0.00000E+0, 0.00000E+0,1.00000,1,  100.0,   100.000,     0.000,  12,1.0000,   0,   1.0,   0,   1.0,   0,   1.0, 1, 1.0000
  7642,'2 ',    20.000,    13.103,    27.840,   -14.054,1.05000,  7642,    36.000, 0.00000E+0, 1.80000E-1, 0.00000E+0, 0.00000E+0,1.00000,1,  100.0,    28.800,     5.400,   8,1.0000
  7643,'3 ',    20.000,     7.905,    19.933,    -0.667,1.05000,  7643,    27.500, 0.00000E+0, 2.01000E-1, 0.00000E+0, 0.00000E+0,1.00000,1,  100.0,    22.800,     0.000,   4,1.0000
  7644,'4 ',    20.000,     7.905,    19.933,    -0.667,1.05000,  7644,    27.500, 0.00000E+0, 2.01000E-1, 0.00000E+0, 0.00000E+0,1.00000,1,  100.0,    22.800,     0.000,   4,1.0000
  7645,'G ',   170.000,    80.688,   128.940,   -76.560,1.05000,  7645,   256.000, 0.00000E+0, 2.07600E-1, 0.00000E+0, 0.00000E+0,1.00000,1,  100.0,   197.000,    80.000,   8,1.0000
  7647,'1 ',     3.500,     3.960,     3.960,    -3.960,1.05000,  7647,     6.200, 0.00000E+0, 9.99900E+3, 0.00000E+0, 0.00000E+0,1.00000,1,  100.0,     6.100,     0.000,  12,1.0000,   0,   1.0,   0,   1.0,   0,   1.0, 1, 1.0000
  7648,'1 ',   144.000,    19.812,    89.000,   -89.000,1.00000,  7648,   219.780, 0.00000E+0, 9.99900E+3, 0.00000E+0, 0.00000E+0,1.00000,1,  100.0,   180.000,     0.000,  12,1.0000,   0,   1.0,   0,   1.0,   0,   1.0, 1, 1.0000
  7651,'1 ',    59.000,    29.954,    43.934,   -30.849,1.05000,  7651,    75.000, 0.00000E+0, 1.00000E-1, 0.00000E+0, 0.00000E+0,1.00000,1,  100.0,    60.000,     0.000,   5,1.0000
  7652,'2 ',    55.000,    29.670,    43.945,   -30.900,1.05000,  7652,    75.000, 0.00000E+0, 1.00000E-1, 0.00000E+0, 0.00000E+0,1.00000,1,  100.0,    60.000,     0.000,   5,1.0000
  7653,'3 ',    80.000,    40.000,    40.000,   -29.000,1.05000,  7653,   156.250, 0.00000E+0, 1.86000E-1, 0.00000E+0, 0.00000E+0,1.00000,1,  100.0,    98.000,     0.000,   8,1.0000
  7661,'1 ',    18.000,     1.612,    14.533,    -8.973,1.00000,  7661,    23.200, 0.00000E+0, 2.00000E-1, 0.00000E+0, 0.00000E+0,1.00000,1,  100.0,    19.000,     3.700,   6,1.0000
  7662,'2 ',    18.000,     1.612,     8.763,    -8.668,1.00000,  7662,    23.200, 0.00000E+0, 2.00000E-1, 0.00000E+0, 0.00000E+0,1.00000,1,  100.0,    19.000,     3.700,   6,1.0000
  7663,'3 ',    18.000,     1.612,     8.763,    -8.668,1.00000,  7663,    23.200, 0.00000E+0, 2.00000E-1, 0.00000E+0, 0.00000E+0,1.00000,1,  100.0,    19.000,     3.700,   6,1.0000
  7664,'4 ',    18.000,     1.612,    16.500,   -20.000,1.00000,  7664,    23.200, 0.00000E+0, 2.00000E-1, 0.00000E+0, 0.00000E+0,1.00000,1,  100.0,    19.000,     3.700,   6,1.0000
  7665,'1 ',    28.000,     4.730,    22.500,   -20.000,1.03000,  7665,    37.500, 0.00000E+0, 2.00000E-1, 0.00000E+0, 0.00000E+0,1.00000,1,  100.0,    30.000,    15.000,   6,1.0000
  7666,'2 ',    28.000,     4.730,    22.500,   -20.000,1.03000,  7666,    37.500, 0.00000E+0, 2.00000E-1, 0.00000E+0, 0.00000E+0,1.00000,1,  100.0,    30.000,    15.000,   6,1.0000
  7667,'3 ',    28.000,     4.730,    22.500,   -20.000,1.03000,  7667,    37.500, 0.00000E+0, 2.00000E-1, 0.00000E+0, 0.00000E+0,1.00000,1,  100.0,    30.000,    15.000,   6,1.0000
  7668,'4 ',    28.000,     4.730,    22.500,   -20.000,1.03000,  7668,    37.500, 0.00000E+0, 2.00000E-1, 0.00000E+0, 0.00000E+0,1.00000,1,  100.0,    30.000,    15.000,   6,1.0000
  7677,'1 ',    21.000,     8.303,    17.100,   -10.000,1.03000,  7677,    28.500, 0.00000E+0, 2.50000E-1, 0.00000E+0, 0.00000E+0,1.00000,1,  100.0,    25.000,    12.800,   6,1.0000
  7678,'2 ',    12.000,     5.256,    10.380,    -7.000,1.03000,  7678,    17.900, 0.00000E+0, 2.10000E-1, 0.00000E+0, 0.00000E+0,1.00000,1,  100.0,    14.600,     6.600,   6,1.0000
  7679,'3 ',    12.000,     5.256,    10.380,    -7.000,1.03000,  7679,    17.900, 0.00000E+0, 2.10000E-1, 0.00000E+0, 0.00000E+0,1.00000,1,  100.0,    14.600,     6.600,   6,1.0000
  7680,'1 ',    25.000,     7.546,    32.000,   -33.000,1.03000,  7680,    50.000, 5.00000E-5, 2.58000E-1, 0.00000E+0, 0.00000E+0,1.00000,0,  100.0,    41.000,     9.000,   6,1.0000
  7683,'1 ',    19.000,     2.948,    20.000,   -10.000,1.00000,  7683,    31.000, 0.00000E+0, 1.70000E-1, 0.00000E+0, 0.00000E+0,1.00000,1,  100.0,    26.000,     5.200,   6,1.0000
  7684,'1 ',     4.000,     0.476,     2.422,    -2.422,1.00000,  7684,     5.550, 0.00000E+0, 9.99990E+4, 0.00000E+0, 0.00000E+0,1.00000,1,  100.0,     5.000,     0.000,  12,1.0000,   0,   1.0,   0,   1.0,   0,   1.0, 1, 1.0000
  7685,'1 ',     5.600,     3.050,     3.050,    -3.050,1.05000,  7685,     7.000, 0.00000E+0, 9.99990E+4, 0.00000E+0, 0.00000E+0,1.00000,1,  100.0,     7.000,     0.000,  12,1.0000,   0,   1.0,   0,   1.0,   0,   1.0, 1, 1.0000
  7686,'1 ',     2.400,     1.000,     1.000,    -1.000,1.05000,  7686,     3.000, 0.00000E+0, 9.99990E+4, 0.00000E+0, 0.00000E+0,1.00000,1,  100.0,     3.000,     0.000,  12,1.0000,   0,   1.0,   0,   1.0,   0,   1.0, 1, 1.0000
  7689,'1 ',     3.000,     1.455,     1.455,    -1.455,1.05000,  7689,     3.000, 0.00000E+0, 9.99990E+4, 0.00000E+0, 0.00000E+0,1.00000,1,  100.0,     3.000,     0.000,  12,1.0000,   0,   1.0,   0,   1.0,   0,   1.0, 1, 1.0000
  7694,'1 ',    30.000,    10.142,    40.000,   -10.000,1.05000,  7694,    71.500, 0.00000E+0, 1.75000E-1, 0.00000E+0, 0.00000E+0,1.00000,1,  100.0,    60.000,    15.000,   6,1.0000
  7695,'2 ',    30.000,    10.142,    40.000,   -10.000,1.05000,  7695,    71.500, 1.75000E-1, 1.75000E-1, 0.00000E+0, 0.00000E+0,1.00000,1,  100.0,    60.000,    15.000,   6,1.0000
  7696,'1 ',     3.000,     1.870,     1.870,    -1.160,1.03000,  7696,     4.150, 0.00000E+0, 1.00000E-1, 0.00000E+0, 0.00000E+0,1.00000,1,  100.0,     3.300,     1.500,   6,1.0000
  7902,'1 ',    80.000,    10.183,    48.000,   -48.000,1.05000,  7902,   100.000, 0.00000E+0, 9.99990E+4, 0.00000E+0, 0.00000E+0,1.00000,1,  100.0,   100.000,     0.000,  12,1.0000,   0,   1.0,   0,   1.0,   0,   1.0, 1, 1.0000
0 / END OF GENERATOR DATA, BEGIN BRANCH DATA
@!   I,     J,'CKT',     R,          X,         B,                    'N A M E'                 ,   RATE1,   RATE2,   RATE3,   RATE4,   RATE5,   RATE6,   RATE7,   RATE8,   RATE9,  RATE10,  RATE11,  RATE12,    GI,       BI,       GJ,       BJ,STAT,MET,  LEN,  O1,  F1,    O2,  F2,    O3,  F3,    O4,  F4
  6010,  7000,'1 ', 2.70400E-03, 2.84830E-02,   2.71996,'                                        ',  866.00, 1386.00, 1451.00,    0.00,    0.00,    0.00,    0.00,    0.00,    0.00,    0.00,    0.00,    0.00,  0.00000,  0.00000,  0.00000, -1.40000,1,1, 258.00,  10,1.0000
  7000,  7005,'1 ', 1.54600E-03, 1.86340E-02,   2.17320,'                                        ', 1732.00, 1732.00, 1750.00,    0.00,    0.00,    0.00,    0.00,    0.00,    0.00,    0.00,    0.00,    0.00,  0.00000,  0.00000,  0.00000, -1.50000,1,1, 188.10,  10,1.0000
  7000,  7010,'1 ', 1.43000E-03, 1.73990E-02,   2.08061,'                                        ',  866.00,  866.00, 2629.00,    0.00,    0.00,    0.00,    0.00,    0.00,    0.00,    0.00,    0.00,    0.00,  0.00000,  0.00000,  0.00000, -1.20000,1,2, 177.80,  10,1.0000
  7100,  7101,'1 ', 2.52584E-02, 1.40205E-01,   0.21670,'                                        ',  228.60,  251.00,  309.00,    0.00,    0.00,    0.00,    0.00,    0.00,    0.00,    0.00,    0.00,    0.00,  0.00000,  0.00000,  0.00000,  0.00000,1,2, 163.87,   1,1.0000
  7100,  7106,'1 ', 6.63000E-03, 3.77000E-02,   0.05544,'                                        ',  191.00,  210.00,  309.00,    0.00,    0.00,    0.00,    0.00,    0.00,    0.00,    0.00,    0.00,    0.00,  0.00000,  0.00000,  0.00000,  0.00000,1,2,  42.95,   1,1.0000
  7100,  7108,'1 ', 8.25000E-03, 4.57700E-02,   0.07075,'                                        ',  152.00,  168.00,  309.00,    0.00,    0.00,    0.00,    0.00,    0.00,    0.00,    0.00,    0.00,    0.00,  0.00000,  0.00000,  0.00000,  0.00000,1,1,  53.49,   1,1.0000
  7101,  7102,'1 ', 2.15764E-03, 1.19767E-02,   0.01851,'                                        ',  228.60,  251.00,  309.00,    0.00,    0.00,    0.00,    0.00,    0.00,    0.00,    0.00,    0.00,    0.00,  0.00000,  0.00000,  0.00000,  0.00000,1,2,  14.00,   1,1.0000
  7102,  7103,'1 ', 1.08286E-02, 6.01081E-02,   0.09290,'                                        ',  229.00,  240.00,  309.00,    0.00,    0.00,    0.00,    0.00,    0.00,    0.00,    0.00,    0.00,    0.00,  0.00000,  0.00000,  0.00000,  0.00000,1,1,   0.00,   1,1.0000
  7102,  7104,'1 ', 3.08900E-03, 1.91700E-02,   0.02919,'                                        ',  381.00,  381.00,    0.00,    0.00,    0.00,    0.00,    0.00,    0.00,    0.00,    0.00,    0.00,    0.00,  0.00000,  0.00000,  0.00000,  0.00000,1,2,  22.00,   1,1.0000
  7102,  7104,'2 ', 3.08900E-03, 1.91700E-02,   0.02920,'                                        ',  381.00,  381.00,    0.00,    0.00,    0.00,    0.00,    0.00,    0.00,    0.00,    0.00,    0.00,    0.00,  0.00000,  0.00000,  0.00000,  0.00000,1,1,  22.00,  10,1.0000
  7103,  7110,'1 ', 1.56214E-02, 8.67119E-02,   0.13402,'                                        ',  229.00,  240.00,  309.00,    0.00,    0.00,    0.00,    0.00,    0.00,    0.00,    0.00,    0.00,    0.00,  0.00000,  0.00000,  0.00000,  0.00000,1,1,   0.00,   1,1.0000
  7104,  7106,'1 ', 2.90200E-02, 1.65070E-01,   0.24284,'                                        ',  305.00,  305.00,  309.00,    0.00,    0.00,    0.00,    0.00,    0.00,    0.00,    0.00,    0.00,    0.00,  0.00000,  0.00000,  0.00000,  0.00000,1,1, 188.32,   1,1.0000
  7106,  7114,'1 ', 6.90000E-04, 4.34000E-03,   0.01287,'                                        ',  564.00,  564.00,    0.00,    0.00,    0.00,    0.00,    0.00,    0.00,    0.00,    0.00,    0.00,    0.00,  0.00000,  0.00000,  0.00000,  0.00000,1,1,   7.00,   1,1.0000
  7200,  7204,'1 ', 2.67300E-02, 9.89500E-02,   0.02018,'                                        ',   75.40,   75.40,  153.00,    0.00,    0.00,    0.00,    0.00,    0.00,    0.00,    0.00,    0.00,    0.00,  0.00000,  0.00000,  0.00000,  0.00000,1,1,  42.00,   1,1.0000
  7200,  7208,'1 ', 2.13200E-02, 7.89200E-02,   0.01609,'                                        ',  153.00,  169.00,  153.00,    0.00,    0.00,    0.00,    0.00,    0.00,    0.00,    0.00,    0.00,    0.00,  0.00000,  0.00000,  0.00000,  0.00000,1,2,  33.50,   1,1.0000
  7200,  7222,'1 ', 1.17100E-02, 4.25600E-02,   0.00983,'                                        ',  114.20,  144.00,  153.00,    0.00,    0.00,    0.00,    0.00,    0.00,    0.00,    0.00,    0.00,    0.00,  0.00000,  0.00000,  0.00000,  0.00000,1,1,  18.40,   1,1.0000
  7201,  7207,'1 ', 7.97076E-03, 1.50444E-02,   0.00308,'                                        ',   96.00,   96.00,   96.00,    0.00,    0.00,    0.00,    0.00,    0.00,    0.00,    0.00,    0.00,    0.00,  0.00000,  0.00000,  0.00000,  0.00000,1,1,   6.40,   1,1.0000
  7201,  7244,'NW', 1.07310E-02, 1.63510E-02,   0.00358,'                                        ',  160.30,  160.30,  160.30,    0.00,    0.00,    0.00,    0.00,    0.00,    0.00,    0.00,    0.00,    0.00,  0.00000,  0.00000,  0.00000,  0.00000,1,1,   7.00,   1,1.0000
  7202,  7244,'1 ', 7.26800E-02, 1.25080E-01,   0.02253,'                                        ',   69.00,   69.00,   84.00,    0.00,    0.00,    0.00,    0.00,    0.00,    0.00,    0.00,    0.00,    0.00,  0.00000,  0.00000,  0.00000,  0.00000,1,1,  50.00,   1,1.0000
  7203,  7244,'1 ', 1.74000E-03, 1.03200E-02,   0.00226,'                                        ',  162.00,  162.00,  175.00,    0.00,    0.00,    0.00,    0.00,    0.00,    0.00,    0.00,    0.00,    0.00,  0.00000,  0.00000,  0.00000,  0.00000,1,1,   4.50,   1,1.0000
  7203,  7244,'2 ', 1.74000E-03, 1.03200E-02,   0.00226,'                                        ',  162.00,  162.00,  175.00,    0.00,    0.00,    0.00,    0.00,    0.00,    0.00,    0.00,    0.00,    0.00,  0.00000,  0.00000,  0.00000,  0.00000,1,1,   4.50,   1,1.0000
  7203,  7251,'1 ', 1.88720E-02, 2.48830E-01,   0.11794,'                                        ',  342.90,  342.90,  342.90,    0.00,    0.00,    0.00,    0.00,    0.00,    0.00,    0.00,    0.00,    0.00,  0.00000,  0.00000,  0.00000,  0.00000,1,1, 160.40,  10,1.0000
  7203,  7255,'1 ', 6.00000E-05, 2.30000E-04,   0.00005,'                                        ',  378.00,  378.00,  378.00,    0.00,    0.00,    0.00,    0.00,    0.00,    0.00,    0.00,    0.00,    0.00,  0.00000,  0.00000,  0.00000,  0.00000,1,2,   0.80,   1,1.0000
  7204,  7238,'1 ', 7.77100E-02, 2.87660E-01,   0.05866,'                                        ',  114.20,  114.20,  153.00,    0.00,    0.00,    0.00,    0.00,    0.00,    0.00,    0.00,    0.00,    0.00,  0.00000,  0.00000,  0.00000,  0.00000,1,2, 122.10,   1,1.0000
  7205,  7214,'1 ', 4.26650E-02, 1.47039E-01,   0.03788,'                                        ',    0.00,    0.00,    0.00,    0.00,    0.00,    0.00,    0.00,    0.00,    0.00,    0.00,    0.00,    0.00,  0.00000,  0.00000,  0.00000,  0.00000,1,1,  16.00,  10,1.0000
  7205,  7261,'1 ', 8.89400E-03, 3.47930E-02,   0.00857,'                                        ',    0.00,    0.00,    0.00,    0.00,    0.00,    0.00,    0.00,    0.00,    0.00,    0.00,    0.00,    0.00,  0.00000,  0.00000,  0.00000,  0.00000,1,1,   0.00,  10,1.0000
  7205,  7276,'1 ', 8.89400E-03, 3.47930E-02,   0.00857,'                                        ',  148.60,  148.60,  148.60,    0.00,    0.00,    0.00,    0.00,    0.00,    0.00,    0.00,    0.00,    0.00,  0.00000,  0.00000,  0.00000,  0.00000,1,1,  16.00,  10,1.0000
  7206,  7207,'1 ', 2.32890E-02, 4.39490E-02,   0.00899,'                                        ',   68.60,   68.60,   96.00,    0.00,    0.00,    0.00,    0.00,    0.00,    0.00,    0.00,    0.00,    0.00,  0.00000,  0.00000,  0.00000,  0.00000,1,2,  18.70,   1,1.0000
  7207,  7211,'1 ', 4.08450E-02, 1.61454E-01,   0.05470,'                                        ',  138.30,  138.30,  138.30,    0.00,    0.00,    0.00,    0.00,    0.00,    0.00,    0.00,    0.00,    0.00,  0.00000,  0.00000,  0.00000,  0.00000,1,1,  74.60,   1,1.0000
  7207,  7255,'2 ', 7.17300E-03, 2.83520E-02,   0.00961,'                                        ',  138.30,  138.30,  138.30,    0.00,    0.00,    0.00,    0.00,    0.00,    0.00,    0.00,    0.00,    0.00,  0.00000,  0.00000,  0.00000,  0.00000,1,2,  13.10,   1,1.0000
  7208,  7216,'A ', 1.34100E-02, 4.62100E-02,   0.01190,'                                        ',  153.00,  153.00,  153.00,    0.00,    0.00,    0.00,    0.00,    0.00,    0.00,    0.00,    0.00,    0.00,  0.00000,  0.00000,  0.00000,  0.00000,1,2,  21.98,   1,1.0000
  7208,  7216,'B ', 1.34100E-02, 4.62100E-02,   0.01190,'                                        ',  153.00,  153.00,  153.00,    0.00,    0.00,    0.00,    0.00,    0.00,    0.00,    0.00,    0.00,    0.00,  0.00000,  0.00000,  0.00000,  0.00000,1,2,  21.98,   1,1.0000
  7208,  7224,'A ', 1.10300E-02, 3.90000E-02,   0.00953,'                                        ',  153.00,  153.00,  153.00,    0.00,    0.00,    0.00,    0.00,    0.00,    0.00,    0.00,    0.00,    0.00,  0.00000,  0.00000,  0.00000,  0.00000,1,1,  18.08,   1,1.0000
  7208,  7224,'B ', 1.10300E-02, 3.90000E-02,   0.00953,'                                        ',  153.00,  153.00,  153.00,    0.00,    0.00,    0.00,    0.00,    0.00,    0.00,    0.00,    0.00,    0.00,  0.00000,  0.00000,  0.00000,  0.00000,1,1,  18.08,   1,1.0000
  7208,  7262,'1 ', 1.07110E-02, 3.08380E-02,   0.00723,'                                        ',  217.00,  217.00,  132.00,    0.00,    0.00,    0.00,    0.00,    0.00,    0.00,    0.00,    0.00,    0.00,  0.00000,  0.00000,  0.00000,  0.00000,1,2,  14.00,   1,1.0000
  7209,  7238,'1 ', 1.17000E-02, 1.86000E-02,   0.00360,'                                        ',   94.00,   94.00,   84.00,    0.00,    0.00,    0.00,    0.00,    0.00,    0.00,    0.00,    0.00,    0.00,  0.00000,  0.00000,  0.00000,  0.00000,1,1,   7.70,   1,1.0000
  7209,  7252,'1 ', 1.90000E-03, 7.20000E-03,   0.09430,'                                        ',  111.00,  111.00,  111.00,    0.00,    0.00,    0.00,    0.00,    0.00,    0.00,    0.00,    0.00,    0.00,  0.00000,  0.00000,  0.00000,  0.00000,1,1,   7.90,   1,1.0000
  7210,  7238,'1 ', 8.79000E-03, 3.20800E-02,   0.00630,'                                        ',   17.00,   17.00,    0.00,    0.00,    0.00,    0.00,    0.00,    0.00,    0.00,    0.00,    0.00,    0.00,  0.00000,  0.00000,  0.00000,  0.00000,1,2,  13.80,   1,1.0000
  7211,  7255,'1 ', 3.75050E-02, 1.48252E-01,   0.05023,'                                        ',  138.30,  138.30,  138.30,    0.00,    0.00,    0.00,    0.00,    0.00,    0.00,    0.00,    0.00,    0.00,  0.00000,  0.00000,  0.00000,  0.00000,1,2,  68.50,  10,1.0000
  7212,  7244,'1 ', 2.15000E-02, 6.34000E-02,   0.01410,'                                        ',   69.00,   69.00,  147.40,    0.00,    0.00,    0.00,    0.00,    0.00,    0.00,    0.00,    0.00,    0.00,  0.00000,  0.00000,  0.00000,  0.00000,1,2,  28.10,   1,1.0000
...